/*--------------------------------*- C++ -*----------------------------------*\
| =========                 |                                                 |
| \\      /  F ield         | OpenFOAM: The Open Source CFD Toolbox           |
|  \\    /   O peration     | Version:  2012                                  |
|   \\  /    A nd           | Website:  www.openfoam.com                      |
|    \\/     M anipulation  |                                                 |
\*---------------------------------------------------------------------------*/
FoamFile
{
    version     2.0;
    format      ascii;
    class       polyBoundaryMesh;
    location    "constant/polyMesh";
    object      boundary;
}
// * * * * * * * * * * * * * * * * * * * * * * * * * * * * * * * * * * * * * //

6
(
    movingWall
    {
        type            wall;
        inGroups        1(wall);
        nFaces          100;
        startFace       19130;
    }
    fixedWalls
    {
        type            wall;
        inGroups        1(wall);
        nFaces          300;
        startFace       19230;
    }
    frontAndBack
    {
        type            empty;
        inGroups        1(empty);
        nFaces          19600;
        startFace       19530;
    }
    box
    {
        type            wall;
        inGroups        1(wall);
        nFaces          60;
        startFace       39130;
    }
    AMI1
    {
        type            cyclicAMI;
        inGroups        1(cyclicAMI);
        nFaces          169;
        startFace       39190;
        matchTolerance  0.0001;
        transform       noOrdering;
        neighbourPatch  AMI2;
        AMIMethod       faceAreaWeightAMI;
        restartUncoveredSourceFace 1;
    }
    AMI2
    {
        type            cyclicAMI;
        inGroups        1(cyclicAMI);
        nFaces          172;
        startFace       39359;
        matchTolerance  0.0001;
        transform       noOrdering;
        neighbourPatch  AMI1;
        AMIMethod       faceAreaWeightAMI;
        restartUncoveredSourceFace 1;
    }
)

// ************************************************************************* //
